
*****
***** Welcome to the Xyce(TM) Parallel Electronic Simulator
*****
***** This is version Xyce DEVELOPMENT-202212040732-(Public_Release-7.6.0-16-g7ac86b45)-opensource
***** Date: Sun Dec 25 07:30:45 UTC 2022


***** Executing netlist tempsenseInst_error_sim_80.sp

***** Reading and parsing netlist...
Netlist warning in file tempsenseInst_error_sim_80.sp at or near line 3
 Unrecognized .OPTIONS package or parameter AUTOSTOP will be ignored
Netlist warning: No print specified
Netlist warning in file
 /home/alex/miniconda3/share/pdk/sky130A/libs.tech/ngspice/corners/../../../libs.ref/sky130_fd_pr/spice/sky130_fd_pr__nfet_03v3_nvt.pm3.spice
 at or near line 1952
 Device model XI1:XHEADER_1:X0:SKY130_FD_PR__NFET_03V3_NVT__MODEL.7: Model
 card specifies BSIM4 version 4.5 which is older than the oldest version
 supported in Xyce (4.6.1).  Using oldest version available.
 
Netlist warning in file
 /home/alex/miniconda3/share/pdk/sky130A/libs.tech/ngspice/corners/../../../libs.ref/sky130_fd_pr/spice/sky130_fd_pr__nfet_03v3_nvt.pm3.spice
 at or near line 1952
 Device model XI1:XHEADER_1:X0:SKY130_FD_PR__NFET_03V3_NVT__MODEL.7: Given
 pbswgd is less than 0.1. Pbswgd is set to 0.1
Netlist warning in file
 /home/alex/miniconda3/share/pdk/sky130A/libs.tech/ngspice/corners/../../../libs.ref/sky130_fd_pr/spice/sky130_fd_pr__nfet_03v3_nvt.pm3.spice
 at or near line 1952
 Device model XI1:XHEADER_1:X1:SKY130_FD_PR__NFET_03V3_NVT__MODEL.7: Model
 card specifies BSIM4 version 4.5 which is older than the oldest version
 supported in Xyce (4.6.1).  Using oldest version available.
 
Netlist warning in file
 /home/alex/miniconda3/share/pdk/sky130A/libs.tech/ngspice/corners/../../../libs.ref/sky130_fd_pr/spice/sky130_fd_pr__nfet_03v3_nvt.pm3.spice
 at or near line 1952
 Device model XI1:XHEADER_1:X1:SKY130_FD_PR__NFET_03V3_NVT__MODEL.7: Given
 pbswgd is less than 0.1. Pbswgd is set to 0.1
Netlist warning in file
 /home/alex/miniconda3/share/pdk/sky130A/libs.tech/ngspice/corners/../../../libs.ref/sky130_fd_pr/spice/sky130_fd_pr__nfet_03v3_nvt.pm3.spice
 at or near line 1952
 Device model XI1:XHEADER_1:X2:SKY130_FD_PR__NFET_03V3_NVT__MODEL.7: Model
 card specifies BSIM4 version 4.5 which is older than the oldest version
 supported in Xyce (4.6.1).  Using oldest version available.
 
Netlist warning in file
 /home/alex/miniconda3/share/pdk/sky130A/libs.tech/ngspice/corners/../../../libs.ref/sky130_fd_pr/spice/sky130_fd_pr__nfet_03v3_nvt.pm3.spice
 at or near line 1952
 Device model XI1:XHEADER_1:X2:SKY130_FD_PR__NFET_03V3_NVT__MODEL.7: Given
 pbswgd is less than 0.1. Pbswgd is set to 0.1
Netlist warning in file
 /home/alex/miniconda3/share/pdk/sky130A/libs.tech/ngspice/corners/../../../libs.ref/sky130_fd_pr/spice/sky130_fd_pr__nfet_03v3_nvt.pm3.spice
 at or near line 1952
 Device model XI1:XHEADER_1:X3:SKY130_FD_PR__NFET_03V3_NVT__MODEL.7: Model
 card specifies BSIM4 version 4.5 which is older than the oldest version
 supported in Xyce (4.6.1).  Using oldest version available.
 
Netlist warning in file
 /home/alex/miniconda3/share/pdk/sky130A/libs.tech/ngspice/corners/../../../libs.ref/sky130_fd_pr/spice/sky130_fd_pr__nfet_03v3_nvt.pm3.spice
 at or near line 1952
 Device model XI1:XHEADER_1:X3:SKY130_FD_PR__NFET_03V3_NVT__MODEL.7: Given
 pbswgd is less than 0.1. Pbswgd is set to 0.1
Netlist warning in file
 /home/alex/miniconda3/share/pdk/sky130A/libs.tech/ngspice/corners/../../../libs.ref/sky130_fd_pr/spice/sky130_fd_pr__nfet_03v3_nvt.pm3.spice
 at or near line 1952
 Device model XI1:XHEADER_1:X4:SKY130_FD_PR__NFET_03V3_NVT__MODEL.7: Model
 card specifies BSIM4 version 4.5 which is older than the oldest version
 supported in Xyce (4.6.1).  Using oldest version available.
 
Netlist warning in file
 /home/alex/miniconda3/share/pdk/sky130A/libs.tech/ngspice/corners/../../../libs.ref/sky130_fd_pr/spice/sky130_fd_pr__nfet_03v3_nvt.pm3.spice
 at or near line 1952
 Device model XI1:XHEADER_1:X4:SKY130_FD_PR__NFET_03V3_NVT__MODEL.7: Given
 pbswgd is less than 0.1. Pbswgd is set to 0.1
Netlist warning in file
 /home/alex/miniconda3/share/pdk/sky130A/libs.tech/ngspice/corners/../../../libs.ref/sky130_fd_pr/spice/sky130_fd_pr__nfet_03v3_nvt.pm3.spice
 at or near line 1952
 Device model XI1:XHEADER_1:X5:SKY130_FD_PR__NFET_03V3_NVT__MODEL.7: Model
 card specifies BSIM4 version 4.5 which is older than the oldest version
 supported in Xyce (4.6.1).  Using oldest version available.
 
Netlist warning in file
 /home/alex/miniconda3/share/pdk/sky130A/libs.tech/ngspice/corners/../../../libs.ref/sky130_fd_pr/spice/sky130_fd_pr__nfet_03v3_nvt.pm3.spice
 at or near line 1952
 Device model XI1:XHEADER_1:X5:SKY130_FD_PR__NFET_03V3_NVT__MODEL.7: Given
 pbswgd is less than 0.1. Pbswgd is set to 0.1
Netlist warning in file
 /home/alex/miniconda3/share/pdk/sky130A/libs.tech/ngspice/corners/../../../libs.ref/sky130_fd_pr/spice/sky130_fd_pr__nfet_03v3_nvt.pm3.spice
 at or near line 1952
 Device model XI1:XHEADER_1:X6:SKY130_FD_PR__NFET_03V3_NVT__MODEL.7: Model
 card specifies BSIM4 version 4.5 which is older than the oldest version
 supported in Xyce (4.6.1).  Using oldest version available.
 
Netlist warning in file
 /home/alex/miniconda3/share/pdk/sky130A/libs.tech/ngspice/corners/../../../libs.ref/sky130_fd_pr/spice/sky130_fd_pr__nfet_03v3_nvt.pm3.spice
 at or near line 1952
 Device model XI1:XHEADER_1:X6:SKY130_FD_PR__NFET_03V3_NVT__MODEL.7: Given
 pbswgd is less than 0.1. Pbswgd is set to 0.1
Netlist warning in file
 /home/alex/miniconda3/share/pdk/sky130A/libs.tech/ngspice/corners/../../../libs.ref/sky130_fd_pr/spice/sky130_fd_pr__nfet_03v3_nvt.pm3.spice
 at or near line 1952
 Device model XI1:XHEADER_1:X7:SKY130_FD_PR__NFET_03V3_NVT__MODEL.7: Model
 card specifies BSIM4 version 4.5 which is older than the oldest version
 supported in Xyce (4.6.1).  Using oldest version available.
 
Netlist warning in file
 /home/alex/miniconda3/share/pdk/sky130A/libs.tech/ngspice/corners/../../../libs.ref/sky130_fd_pr/spice/sky130_fd_pr__nfet_03v3_nvt.pm3.spice
 at or near line 1952
 Device model XI1:XHEADER_1:X7:SKY130_FD_PR__NFET_03V3_NVT__MODEL.7: Given
 pbswgd is less than 0.1. Pbswgd is set to 0.1
Netlist warning in file
 /home/alex/miniconda3/share/pdk/sky130A/libs.tech/ngspice/corners/../../../libs.ref/sky130_fd_pr/spice/sky130_fd_pr__nfet_01v8__tt.pm3.spice
 at or near line 23884
 Device model
 XI1:XSKY130_FD_SC_HD__INV_1_4:X0:SKY130_FD_PR__NFET_01V8__MODEL.89: Model
 card specifies BSIM4 version 4.5 which is older than the oldest version
 supported in Xyce (4.6.1).  Using oldest version available.
 
Netlist warning in file
 /home/alex/miniconda3/share/pdk/sky130A/libs.tech/ngspice/corners/../../../libs.ref/sky130_fd_pr/spice/sky130_fd_pr__nfet_01v8__tt.pm3.spice
 at or near line 23884
 Device model
 XI1:XSKY130_FD_SC_HD__INV_1_4:X0:SKY130_FD_PR__NFET_01V8__MODEL.89: Given
 pbswgd is less than 0.1. Pbswgd is set to 0.1
Netlist warning in file
 /home/alex/miniconda3/share/pdk/sky130A/libs.tech/ngspice/corners/../../../libs.ref/sky130_fd_pr/spice/sky130_fd_pr__pfet_01v8_hvt__tt.pm3.spice
 at or near line 21474
 Device model
 XI1:XSKY130_FD_SC_HD__INV_1_4:X1:SKY130_FD_PR__PFET_01V8_HVT__MODEL.80: Model
 card specifies BSIM4 version 4.5 which is older than the oldest version
 supported in Xyce (4.6.1).  Using oldest version available.
 
Netlist warning in file
 /home/alex/miniconda3/share/pdk/sky130A/libs.tech/ngspice/corners/../../../libs.ref/sky130_fd_pr/spice/sky130_fd_pr__pfet_01v8_hvt__tt.pm3.spice
 at or near line 21474
 Device model
 XI1:XSKY130_FD_SC_HD__INV_1_4:X1:SKY130_FD_PR__PFET_01V8_HVT__MODEL.80: Given
 pbswgd is less than 0.1. Pbswgd is set to 0.1
Netlist warning in file
 /home/alex/miniconda3/share/pdk/sky130A/libs.tech/ngspice/corners/../../../libs.ref/sky130_fd_pr/spice/sky130_fd_pr__nfet_01v8__tt.pm3.spice
 at or near line 23884
 Device model
 XI1:XSKY130_FD_SC_HD__INV_1_37:X0:SKY130_FD_PR__NFET_01V8__MODEL.89: Model
 card specifies BSIM4 version 4.5 which is older than the oldest version
 supported in Xyce (4.6.1).  Using oldest version available.
 
Netlist warning in file
 /home/alex/miniconda3/share/pdk/sky130A/libs.tech/ngspice/corners/../../../libs.ref/sky130_fd_pr/spice/sky130_fd_pr__nfet_01v8__tt.pm3.spice
 at or near line 23884
 Device model
 XI1:XSKY130_FD_SC_HD__INV_1_37:X0:SKY130_FD_PR__NFET_01V8__MODEL.89: Given
 pbswgd is less than 0.1. Pbswgd is set to 0.1
Netlist warning in file
 /home/alex/miniconda3/share/pdk/sky130A/libs.tech/ngspice/corners/../../../libs.ref/sky130_fd_pr/spice/sky130_fd_pr__pfet_01v8_hvt__tt.pm3.spice
 at or near line 21474
 Device model
 XI1:XSKY130_FD_SC_HD__INV_1_37:X1:SKY130_FD_PR__PFET_01V8_HVT__MODEL.80:
 Model card specifies BSIM4 version 4.5 which is older than the oldest version
 supported in Xyce (4.6.1).  Using oldest version available.
 
Netlist warning in file
 /home/alex/miniconda3/share/pdk/sky130A/libs.tech/ngspice/corners/../../../libs.ref/sky130_fd_pr/spice/sky130_fd_pr__pfet_01v8_hvt__tt.pm3.spice
 at or near line 21474
 Device model
 XI1:XSKY130_FD_SC_HD__INV_1_37:X1:SKY130_FD_PR__PFET_01V8_HVT__MODEL.80:
 Given pbswgd is less than 0.1. Pbswgd is set to 0.1
Netlist warning in file
 /home/alex/miniconda3/share/pdk/sky130A/libs.tech/ngspice/corners/../../../libs.ref/sky130_fd_pr/spice/sky130_fd_pr__nfet_01v8__tt.pm3.spice
 at or near line 23884
 Device model
 XI1:XSKY130_FD_SC_HD__INV_1_48:X0:SKY130_FD_PR__NFET_01V8__MODEL.89: Model
 card specifies BSIM4 version 4.5 which is older than the oldest version
 supported in Xyce (4.6.1).  Using oldest version available.
 
Netlist warning in file
 /home/alex/miniconda3/share/pdk/sky130A/libs.tech/ngspice/corners/../../../libs.ref/sky130_fd_pr/spice/sky130_fd_pr__nfet_01v8__tt.pm3.spice
 at or near line 23884
 Device model
 XI1:XSKY130_FD_SC_HD__INV_1_48:X0:SKY130_FD_PR__NFET_01V8__MODEL.89: Given
 pbswgd is less than 0.1. Pbswgd is set to 0.1
Netlist warning in file
 /home/alex/miniconda3/share/pdk/sky130A/libs.tech/ngspice/corners/../../../libs.ref/sky130_fd_pr/spice/sky130_fd_pr__pfet_01v8_hvt__tt.pm3.spice
 at or near line 21474
 Device model
 XI1:XSKY130_FD_SC_HD__INV_1_48:X1:SKY130_FD_PR__PFET_01V8_HVT__MODEL.80:
 Model card specifies BSIM4 version 4.5 which is older than the oldest version
 supported in Xyce (4.6.1).  Using oldest version available.
 
Netlist warning in file
 /home/alex/miniconda3/share/pdk/sky130A/libs.tech/ngspice/corners/../../../libs.ref/sky130_fd_pr/spice/sky130_fd_pr__pfet_01v8_hvt__tt.pm3.spice
 at or near line 21474
 Device model
 XI1:XSKY130_FD_SC_HD__INV_1_48:X1:SKY130_FD_PR__PFET_01V8_HVT__MODEL.80:
 Given pbswgd is less than 0.1. Pbswgd is set to 0.1
Netlist warning in file
 /home/alex/miniconda3/share/pdk/sky130A/libs.tech/ngspice/corners/../../../libs.ref/sky130_fd_pr/spice/sky130_fd_pr__nfet_01v8__tt.pm3.spice
 at or near line 23884
 Device model
 XI1:XSKY130_FD_SC_HD__INV_1_26:X0:SKY130_FD_PR__NFET_01V8__MODEL.89: Model
 card specifies BSIM4 version 4.5 which is older than the oldest version
 supported in Xyce (4.6.1).  Using oldest version available.
 
Netlist warning in file
 /home/alex/miniconda3/share/pdk/sky130A/libs.tech/ngspice/corners/../../../libs.ref/sky130_fd_pr/spice/sky130_fd_pr__nfet_01v8__tt.pm3.spice
 at or near line 23884
 Device model
 XI1:XSKY130_FD_SC_HD__INV_1_26:X0:SKY130_FD_PR__NFET_01V8__MODEL.89: Given
 pbswgd is less than 0.1. Pbswgd is set to 0.1
Netlist warning in file
 /home/alex/miniconda3/share/pdk/sky130A/libs.tech/ngspice/corners/../../../libs.ref/sky130_fd_pr/spice/sky130_fd_pr__pfet_01v8_hvt__tt.pm3.spice
 at or near line 21474
 Device model
 XI1:XSKY130_FD_SC_HD__INV_1_26:X1:SKY130_FD_PR__PFET_01V8_HVT__MODEL.80:
 Model card specifies BSIM4 version 4.5 which is older than the oldest version
 supported in Xyce (4.6.1).  Using oldest version available.
 
Netlist warning in file
 /home/alex/miniconda3/share/pdk/sky130A/libs.tech/ngspice/corners/../../../libs.ref/sky130_fd_pr/spice/sky130_fd_pr__pfet_01v8_hvt__tt.pm3.spice
 at or near line 21474
 Device model
 XI1:XSKY130_FD_SC_HD__INV_1_26:X1:SKY130_FD_PR__PFET_01V8_HVT__MODEL.80:
 Given pbswgd is less than 0.1. Pbswgd is set to 0.1
Netlist warning in file
 /home/alex/miniconda3/share/pdk/sky130A/libs.tech/ngspice/corners/../../../libs.ref/sky130_fd_pr/spice/sky130_fd_pr__nfet_01v8__tt.pm3.spice
 at or near line 23884
 Device model
 XI1:XSKY130_FD_SC_HD__INV_1_15:X0:SKY130_FD_PR__NFET_01V8__MODEL.89: Model
 card specifies BSIM4 version 4.5 which is older than the oldest version
 supported in Xyce (4.6.1).  Using oldest version available.
 
Netlist warning in file
 /home/alex/miniconda3/share/pdk/sky130A/libs.tech/ngspice/corners/../../../libs.ref/sky130_fd_pr/spice/sky130_fd_pr__nfet_01v8__tt.pm3.spice
 at or near line 23884
 Device model
 XI1:XSKY130_FD_SC_HD__INV_1_15:X0:SKY130_FD_PR__NFET_01V8__MODEL.89: Given
 pbswgd is less than 0.1. Pbswgd is set to 0.1
Netlist warning in file
 /home/alex/miniconda3/share/pdk/sky130A/libs.tech/ngspice/corners/../../../libs.ref/sky130_fd_pr/spice/sky130_fd_pr__pfet_01v8_hvt__tt.pm3.spice
 at or near line 21474
 Device model
 XI1:XSKY130_FD_SC_HD__INV_1_15:X1:SKY130_FD_PR__PFET_01V8_HVT__MODEL.80:
 Model card specifies BSIM4 version 4.5 which is older than the oldest version
 supported in Xyce (4.6.1).  Using oldest version available.
 
Netlist warning in file
 /home/alex/miniconda3/share/pdk/sky130A/libs.tech/ngspice/corners/../../../libs.ref/sky130_fd_pr/spice/sky130_fd_pr__pfet_01v8_hvt__tt.pm3.spice
 at or near line 21474
 Device model
 XI1:XSKY130_FD_SC_HD__INV_1_15:X1:SKY130_FD_PR__PFET_01V8_HVT__MODEL.80:
 Given pbswgd is less than 0.1. Pbswgd is set to 0.1
Netlist warning in file
 /home/alex/miniconda3/share/pdk/sky130A/libs.tech/ngspice/corners/../../../libs.ref/sky130_fd_pr/spice/sky130_fd_pr__nfet_03v3_nvt.pm3.spice
 at or near line 1952
 Device model XI1:XHEADER_2:X0:SKY130_FD_PR__NFET_03V3_NVT__MODEL.7: Model
 card specifies BSIM4 version 4.5 which is older than the oldest version
 supported in Xyce (4.6.1).  Using oldest version available.
 
Netlist warning in file
 /home/alex/miniconda3/share/pdk/sky130A/libs.tech/ngspice/corners/../../../libs.ref/sky130_fd_pr/spice/sky130_fd_pr__nfet_03v3_nvt.pm3.spice
 at or near line 1952
 Device model XI1:XHEADER_2:X0:SKY130_FD_PR__NFET_03V3_NVT__MODEL.7: Given
 pbswgd is less than 0.1. Pbswgd is set to 0.1
Netlist warning in file
 /home/alex/miniconda3/share/pdk/sky130A/libs.tech/ngspice/corners/../../../libs.ref/sky130_fd_pr/spice/sky130_fd_pr__nfet_03v3_nvt.pm3.spice
 at or near line 1952
 Device model XI1:XHEADER_2:X1:SKY130_FD_PR__NFET_03V3_NVT__MODEL.7: Model
 card specifies BSIM4 version 4.5 which is older than the oldest version
 supported in Xyce (4.6.1).  Using oldest version available.
 
Netlist warning in file
 /home/alex/miniconda3/share/pdk/sky130A/libs.tech/ngspice/corners/../../../libs.ref/sky130_fd_pr/spice/sky130_fd_pr__nfet_03v3_nvt.pm3.spice
 at or near line 1952
 Device model XI1:XHEADER_2:X1:SKY130_FD_PR__NFET_03V3_NVT__MODEL.7: Given
 pbswgd is less than 0.1. Pbswgd is set to 0.1
Netlist warning in file
 /home/alex/miniconda3/share/pdk/sky130A/libs.tech/ngspice/corners/../../../libs.ref/sky130_fd_pr/spice/sky130_fd_pr__nfet_03v3_nvt.pm3.spice
 at or near line 1952
 Device model XI1:XHEADER_2:X2:SKY130_FD_PR__NFET_03V3_NVT__MODEL.7: Model
 card specifies BSIM4 version 4.5 which is older than the oldest version
 supported in Xyce (4.6.1).  Using oldest version available.
 
Netlist warning in file
 /home/alex/miniconda3/share/pdk/sky130A/libs.tech/ngspice/corners/../../../libs.ref/sky130_fd_pr/spice/sky130_fd_pr__nfet_03v3_nvt.pm3.spice
 at or near line 1952
 Device model XI1:XHEADER_2:X2:SKY130_FD_PR__NFET_03V3_NVT__MODEL.7: Given
 pbswgd is less than 0.1. Pbswgd is set to 0.1
Netlist warning in file
 /home/alex/miniconda3/share/pdk/sky130A/libs.tech/ngspice/corners/../../../libs.ref/sky130_fd_pr/spice/sky130_fd_pr__nfet_03v3_nvt.pm3.spice
 at or near line 1952
 Device model XI1:XHEADER_2:X3:SKY130_FD_PR__NFET_03V3_NVT__MODEL.7: Model
 card specifies BSIM4 version 4.5 which is older than the oldest version
 supported in Xyce (4.6.1).  Using oldest version available.
 
Netlist warning in file
 /home/alex/miniconda3/share/pdk/sky130A/libs.tech/ngspice/corners/../../../libs.ref/sky130_fd_pr/spice/sky130_fd_pr__nfet_03v3_nvt.pm3.spice
 at or near line 1952
 Device model XI1:XHEADER_2:X3:SKY130_FD_PR__NFET_03V3_NVT__MODEL.7: Given
 pbswgd is less than 0.1. Pbswgd is set to 0.1
Netlist warning in file
 /home/alex/miniconda3/share/pdk/sky130A/libs.tech/ngspice/corners/../../../libs.ref/sky130_fd_pr/spice/sky130_fd_pr__nfet_03v3_nvt.pm3.spice
 at or near line 1952
 Device model XI1:XHEADER_2:X4:SKY130_FD_PR__NFET_03V3_NVT__MODEL.7: Model
 card specifies BSIM4 version 4.5 which is older than the oldest version
 supported in Xyce (4.6.1).  Using oldest version available.
 
Netlist warning in file
 /home/alex/miniconda3/share/pdk/sky130A/libs.tech/ngspice/corners/../../../libs.ref/sky130_fd_pr/spice/sky130_fd_pr__nfet_03v3_nvt.pm3.spice
 at or near line 1952
 Device model XI1:XHEADER_2:X4:SKY130_FD_PR__NFET_03V3_NVT__MODEL.7: Given
 pbswgd is less than 0.1. Pbswgd is set to 0.1
Netlist warning in file
 /home/alex/miniconda3/share/pdk/sky130A/libs.tech/ngspice/corners/../../../libs.ref/sky130_fd_pr/spice/sky130_fd_pr__nfet_03v3_nvt.pm3.spice
 at or near line 1952
 Device model XI1:XHEADER_2:X5:SKY130_FD_PR__NFET_03V3_NVT__MODEL.7: Model
 card specifies BSIM4 version 4.5 which is older than the oldest version
 supported in Xyce (4.6.1).  Using oldest version available.
 
Netlist warning in file
 /home/alex/miniconda3/share/pdk/sky130A/libs.tech/ngspice/corners/../../../libs.ref/sky130_fd_pr/spice/sky130_fd_pr__nfet_03v3_nvt.pm3.spice
 at or near line 1952
 Device model XI1:XHEADER_2:X5:SKY130_FD_PR__NFET_03V3_NVT__MODEL.7: Given
 pbswgd is less than 0.1. Pbswgd is set to 0.1
Netlist warning in file
 /home/alex/miniconda3/share/pdk/sky130A/libs.tech/ngspice/corners/../../../libs.ref/sky130_fd_pr/spice/sky130_fd_pr__nfet_03v3_nvt.pm3.spice
 at or near line 1952
 Device model XI1:XHEADER_2:X6:SKY130_FD_PR__NFET_03V3_NVT__MODEL.7: Model
 card specifies BSIM4 version 4.5 which is older than the oldest version
 supported in Xyce (4.6.1).  Using oldest version available.
 
Netlist warning in file
 /home/alex/miniconda3/share/pdk/sky130A/libs.tech/ngspice/corners/../../../libs.ref/sky130_fd_pr/spice/sky130_fd_pr__nfet_03v3_nvt.pm3.spice
 at or near line 1952
 Device model XI1:XHEADER_2:X6:SKY130_FD_PR__NFET_03V3_NVT__MODEL.7: Given
 pbswgd is less than 0.1. Pbswgd is set to 0.1
Netlist warning in file
 /home/alex/miniconda3/share/pdk/sky130A/libs.tech/ngspice/corners/../../../libs.ref/sky130_fd_pr/spice/sky130_fd_pr__nfet_03v3_nvt.pm3.spice
 at or near line 1952
 Device model XI1:XHEADER_2:X7:SKY130_FD_PR__NFET_03V3_NVT__MODEL.7: Model
 card specifies BSIM4 version 4.5 which is older than the oldest version
 supported in Xyce (4.6.1).  Using oldest version available.
 
Netlist warning in file
 /home/alex/miniconda3/share/pdk/sky130A/libs.tech/ngspice/corners/../../../libs.ref/sky130_fd_pr/spice/sky130_fd_pr__nfet_03v3_nvt.pm3.spice
 at or near line 1952
 Device model XI1:XHEADER_2:X7:SKY130_FD_PR__NFET_03V3_NVT__MODEL.7: Given
 pbswgd is less than 0.1. Pbswgd is set to 0.1
Netlist warning in file
 /home/alex/miniconda3/share/pdk/sky130A/libs.tech/ngspice/corners/../../../libs.ref/sky130_fd_pr/spice/sky130_fd_pr__nfet_01v8__tt.pm3.spice
 at or near line 23884
 Device model
 XI1:XSKY130_FD_SC_HD__INV_1_5:X0:SKY130_FD_PR__NFET_01V8__MODEL.89: Model
 card specifies BSIM4 version 4.5 which is older than the oldest version
 supported in Xyce (4.6.1).  Using oldest version available.
 
Netlist warning in file
 /home/alex/miniconda3/share/pdk/sky130A/libs.tech/ngspice/corners/../../../libs.ref/sky130_fd_pr/spice/sky130_fd_pr__nfet_01v8__tt.pm3.spice
 at or near line 23884
 Device model
 XI1:XSKY130_FD_SC_HD__INV_1_5:X0:SKY130_FD_PR__NFET_01V8__MODEL.89: Given
 pbswgd is less than 0.1. Pbswgd is set to 0.1
Netlist warning in file
 /home/alex/miniconda3/share/pdk/sky130A/libs.tech/ngspice/corners/../../../libs.ref/sky130_fd_pr/spice/sky130_fd_pr__pfet_01v8_hvt__tt.pm3.spice
 at or near line 21474
 Device model
 XI1:XSKY130_FD_SC_HD__INV_1_5:X1:SKY130_FD_PR__PFET_01V8_HVT__MODEL.80: Model
 card specifies BSIM4 version 4.5 which is older than the oldest version
 supported in Xyce (4.6.1).  Using oldest version available.
 
Netlist warning in file
 /home/alex/miniconda3/share/pdk/sky130A/libs.tech/ngspice/corners/../../../libs.ref/sky130_fd_pr/spice/sky130_fd_pr__pfet_01v8_hvt__tt.pm3.spice
 at or near line 21474
 Device model
 XI1:XSKY130_FD_SC_HD__INV_1_5:X1:SKY130_FD_PR__PFET_01V8_HVT__MODEL.80: Given
 pbswgd is less than 0.1. Pbswgd is set to 0.1
Netlist warning in file
 /home/alex/miniconda3/share/pdk/sky130A/libs.tech/ngspice/corners/../../../libs.ref/sky130_fd_pr/spice/sky130_fd_pr__nfet_01v8__tt.pm3.spice
 at or near line 23884
 Device model
 XI1:XSKY130_FD_SC_HD__INV_1_49:X0:SKY130_FD_PR__NFET_01V8__MODEL.89: Model
 card specifies BSIM4 version 4.5 which is older than the oldest version
 supported in Xyce (4.6.1).  Using oldest version available.
 
Netlist warning in file
 /home/alex/miniconda3/share/pdk/sky130A/libs.tech/ngspice/corners/../../../libs.ref/sky130_fd_pr/spice/sky130_fd_pr__nfet_01v8__tt.pm3.spice
 at or near line 23884
 Device model
 XI1:XSKY130_FD_SC_HD__INV_1_49:X0:SKY130_FD_PR__NFET_01V8__MODEL.89: Given
 pbswgd is less than 0.1. Pbswgd is set to 0.1
Netlist warning in file
 /home/alex/miniconda3/share/pdk/sky130A/libs.tech/ngspice/corners/../../../libs.ref/sky130_fd_pr/spice/sky130_fd_pr__pfet_01v8_hvt__tt.pm3.spice
 at or near line 21474
 Device model
 XI1:XSKY130_FD_SC_HD__INV_1_49:X1:SKY130_FD_PR__PFET_01V8_HVT__MODEL.80:
 Model card specifies BSIM4 version 4.5 which is older than the oldest version
 supported in Xyce (4.6.1).  Using oldest version available.
 
Netlist warning in file
 /home/alex/miniconda3/share/pdk/sky130A/libs.tech/ngspice/corners/../../../libs.ref/sky130_fd_pr/spice/sky130_fd_pr__pfet_01v8_hvt__tt.pm3.spice
 at or near line 21474
 Device model
 XI1:XSKY130_FD_SC_HD__INV_1_49:X1:SKY130_FD_PR__PFET_01V8_HVT__MODEL.80:
 Given pbswgd is less than 0.1. Pbswgd is set to 0.1
Netlist warning in file
 /home/alex/miniconda3/share/pdk/sky130A/libs.tech/ngspice/corners/../../../libs.ref/sky130_fd_pr/spice/sky130_fd_pr__nfet_01v8__tt.pm3.spice
 at or near line 23884
 Device model
 XI1:XSKY130_FD_SC_HD__INV_1_38:X0:SKY130_FD_PR__NFET_01V8__MODEL.89: Model
 card specifies BSIM4 version 4.5 which is older than the oldest version
 supported in Xyce (4.6.1).  Using oldest version available.
 
Netlist warning in file
 /home/alex/miniconda3/share/pdk/sky130A/libs.tech/ngspice/corners/../../../libs.ref/sky130_fd_pr/spice/sky130_fd_pr__nfet_01v8__tt.pm3.spice
 at or near line 23884
 Device model
 XI1:XSKY130_FD_SC_HD__INV_1_38:X0:SKY130_FD_PR__NFET_01V8__MODEL.89: Given
 pbswgd is less than 0.1. Pbswgd is set to 0.1
Netlist warning in file
 /home/alex/miniconda3/share/pdk/sky130A/libs.tech/ngspice/corners/../../../libs.ref/sky130_fd_pr/spice/sky130_fd_pr__pfet_01v8_hvt__tt.pm3.spice
 at or near line 21474
 Device model
 XI1:XSKY130_FD_SC_HD__INV_1_38:X1:SKY130_FD_PR__PFET_01V8_HVT__MODEL.80:
 Model card specifies BSIM4 version 4.5 which is older than the oldest version
 supported in Xyce (4.6.1).  Using oldest version available.
 
Netlist warning in file
 /home/alex/miniconda3/share/pdk/sky130A/libs.tech/ngspice/corners/../../../libs.ref/sky130_fd_pr/spice/sky130_fd_pr__pfet_01v8_hvt__tt.pm3.spice
 at or near line 21474
 Device model
 XI1:XSKY130_FD_SC_HD__INV_1_38:X1:SKY130_FD_PR__PFET_01V8_HVT__MODEL.80:
 Given pbswgd is less than 0.1. Pbswgd is set to 0.1
Netlist warning in file
 /home/alex/miniconda3/share/pdk/sky130A/libs.tech/ngspice/corners/../../../libs.ref/sky130_fd_pr/spice/sky130_fd_pr__nfet_01v8__tt.pm3.spice
 at or near line 23884
 Device model
 XI1:XSKY130_FD_SC_HD__INV_1_27:X0:SKY130_FD_PR__NFET_01V8__MODEL.89: Model
 card specifies BSIM4 version 4.5 which is older than the oldest version
 supported in Xyce (4.6.1).  Using oldest version available.
 
Netlist warning in file
 /home/alex/miniconda3/share/pdk/sky130A/libs.tech/ngspice/corners/../../../libs.ref/sky130_fd_pr/spice/sky130_fd_pr__nfet_01v8__tt.pm3.spice
 at or near line 23884
 Device model
 XI1:XSKY130_FD_SC_HD__INV_1_27:X0:SKY130_FD_PR__NFET_01V8__MODEL.89: Given
 pbswgd is less than 0.1. Pbswgd is set to 0.1
Netlist warning in file
 /home/alex/miniconda3/share/pdk/sky130A/libs.tech/ngspice/corners/../../../libs.ref/sky130_fd_pr/spice/sky130_fd_pr__pfet_01v8_hvt__tt.pm3.spice
 at or near line 21474
 Device model
 XI1:XSKY130_FD_SC_HD__INV_1_27:X1:SKY130_FD_PR__PFET_01V8_HVT__MODEL.80:
 Model card specifies BSIM4 version 4.5 which is older than the oldest version
 supported in Xyce (4.6.1).  Using oldest version available.
 
Netlist warning in file
 /home/alex/miniconda3/share/pdk/sky130A/libs.tech/ngspice/corners/../../../libs.ref/sky130_fd_pr/spice/sky130_fd_pr__pfet_01v8_hvt__tt.pm3.spice
 at or near line 21474
 Device model
 XI1:XSKY130_FD_SC_HD__INV_1_27:X1:SKY130_FD_PR__PFET_01V8_HVT__MODEL.80:
 Given pbswgd is less than 0.1. Pbswgd is set to 0.1
Netlist warning in file
 /home/alex/miniconda3/share/pdk/sky130A/libs.tech/ngspice/corners/../../../libs.ref/sky130_fd_pr/spice/sky130_fd_pr__nfet_03v3_nvt.pm3.spice
 at or near line 1952
 Device model XI1:XHEADER_3:X0:SKY130_FD_PR__NFET_03V3_NVT__MODEL.7: Model
 card specifies BSIM4 version 4.5 which is older than the oldest version
 supported in Xyce (4.6.1).  Using oldest version available.
 
Netlist warning in file
 /home/alex/miniconda3/share/pdk/sky130A/libs.tech/ngspice/corners/../../../libs.ref/sky130_fd_pr/spice/sky130_fd_pr__nfet_03v3_nvt.pm3.spice
 at or near line 1952
 Device model XI1:XHEADER_3:X0:SKY130_FD_PR__NFET_03V3_NVT__MODEL.7: Given
 pbswgd is less than 0.1. Pbswgd is set to 0.1
Netlist warning in file
 /home/alex/miniconda3/share/pdk/sky130A/libs.tech/ngspice/corners/../../../libs.ref/sky130_fd_pr/spice/sky130_fd_pr__nfet_03v3_nvt.pm3.spice
 at or near line 1952
 Device model XI1:XHEADER_3:X1:SKY130_FD_PR__NFET_03V3_NVT__MODEL.7: Model
 card specifies BSIM4 version 4.5 which is older than the oldest version
 supported in Xyce (4.6.1).  Using oldest version available.
 
Netlist warning in file
 /home/alex/miniconda3/share/pdk/sky130A/libs.tech/ngspice/corners/../../../libs.ref/sky130_fd_pr/spice/sky130_fd_pr__nfet_03v3_nvt.pm3.spice
 at or near line 1952
 Device model XI1:XHEADER_3:X1:SKY130_FD_PR__NFET_03V3_NVT__MODEL.7: Given
 pbswgd is less than 0.1. Pbswgd is set to 0.1
Netlist warning in file
 /home/alex/miniconda3/share/pdk/sky130A/libs.tech/ngspice/corners/../../../libs.ref/sky130_fd_pr/spice/sky130_fd_pr__nfet_03v3_nvt.pm3.spice
 at or near line 1952
 Device model XI1:XHEADER_3:X2:SKY130_FD_PR__NFET_03V3_NVT__MODEL.7: Model
 card specifies BSIM4 version 4.5 which is older than the oldest version
 supported in Xyce (4.6.1).  Using oldest version available.
 
Netlist warning in file
 /home/alex/miniconda3/share/pdk/sky130A/libs.tech/ngspice/corners/../../../libs.ref/sky130_fd_pr/spice/sky130_fd_pr__nfet_03v3_nvt.pm3.spice
 at or near line 1952
 Device model XI1:XHEADER_3:X2:SKY130_FD_PR__NFET_03V3_NVT__MODEL.7: Given
 pbswgd is less than 0.1. Pbswgd is set to 0.1
Netlist warning in file
 /home/alex/miniconda3/share/pdk/sky130A/libs.tech/ngspice/corners/../../../libs.ref/sky130_fd_pr/spice/sky130_fd_pr__nfet_03v3_nvt.pm3.spice
 at or near line 1952
 Device model XI1:XHEADER_3:X3:SKY130_FD_PR__NFET_03V3_NVT__MODEL.7: Model
 card specifies BSIM4 version 4.5 which is older than the oldest version
 supported in Xyce (4.6.1).  Using oldest version available.
 
Netlist warning in file
 /home/alex/miniconda3/share/pdk/sky130A/libs.tech/ngspice/corners/../../../libs.ref/sky130_fd_pr/spice/sky130_fd_pr__nfet_03v3_nvt.pm3.spice
 at or near line 1952
 Device model XI1:XHEADER_3:X3:SKY130_FD_PR__NFET_03V3_NVT__MODEL.7: Given
 pbswgd is less than 0.1. Pbswgd is set to 0.1
Netlist warning in file
 /home/alex/miniconda3/share/pdk/sky130A/libs.tech/ngspice/corners/../../../libs.ref/sky130_fd_pr/spice/sky130_fd_pr__nfet_03v3_nvt.pm3.spice
 at or near line 1952
 Device model XI1:XHEADER_3:X4:SKY130_FD_PR__NFET_03V3_NVT__MODEL.7: Model
 card specifies BSIM4 version 4.5 which is older than the oldest version
 supported in Xyce (4.6.1).  Using oldest version available.
 
Netlist warning in file
 /home/alex/miniconda3/share/pdk/sky130A/libs.tech/ngspice/corners/../../../libs.ref/sky130_fd_pr/spice/sky130_fd_pr__nfet_03v3_nvt.pm3.spice
 at or near line 1952
 Device model XI1:XHEADER_3:X4:SKY130_FD_PR__NFET_03V3_NVT__MODEL.7: Given
 pbswgd is less than 0.1. Pbswgd is set to 0.1
Netlist warning in file
 /home/alex/miniconda3/share/pdk/sky130A/libs.tech/ngspice/corners/../../../libs.ref/sky130_fd_pr/spice/sky130_fd_pr__nfet_03v3_nvt.pm3.spice
 at or near line 1952
 Device model XI1:XHEADER_3:X5:SKY130_FD_PR__NFET_03V3_NVT__MODEL.7: Model
 card specifies BSIM4 version 4.5 which is older than the oldest version
 supported in Xyce (4.6.1).  Using oldest version available.
 
Netlist warning in file
 /home/alex/miniconda3/share/pdk/sky130A/libs.tech/ngspice/corners/../../../libs.ref/sky130_fd_pr/spice/sky130_fd_pr__nfet_03v3_nvt.pm3.spice
 at or near line 1952
 Device model XI1:XHEADER_3:X5:SKY130_FD_PR__NFET_03V3_NVT__MODEL.7: Given
 pbswgd is less than 0.1. Pbswgd is set to 0.1
Netlist warning in file
 /home/alex/miniconda3/share/pdk/sky130A/libs.tech/ngspice/corners/../../../libs.ref/sky130_fd_pr/spice/sky130_fd_pr__nfet_03v3_nvt.pm3.spice
 at or near line 1952
 Device model XI1:XHEADER_3:X6:SKY130_FD_PR__NFET_03V3_NVT__MODEL.7: Model
 card specifies BSIM4 version 4.5 which is older than the oldest version
 supported in Xyce (4.6.1).  Using oldest version available.
 
Netlist warning in file
 /home/alex/miniconda3/share/pdk/sky130A/libs.tech/ngspice/corners/../../../libs.ref/sky130_fd_pr/spice/sky130_fd_pr__nfet_03v3_nvt.pm3.spice
 at or near line 1952
 Device model XI1:XHEADER_3:X6:SKY130_FD_PR__NFET_03V3_NVT__MODEL.7: Given
 pbswgd is less than 0.1. Pbswgd is set to 0.1
Netlist warning in file
 /home/alex/miniconda3/share/pdk/sky130A/libs.tech/ngspice/corners/../../../libs.ref/sky130_fd_pr/spice/sky130_fd_pr__nfet_03v3_nvt.pm3.spice
 at or near line 1952
 Device model XI1:XHEADER_3:X7:SKY130_FD_PR__NFET_03V3_NVT__MODEL.7: Model
 card specifies BSIM4 version 4.5 which is older than the oldest version
 supported in Xyce (4.6.1).  Using oldest version available.
 
Netlist warning in file
 /home/alex/miniconda3/share/pdk/sky130A/libs.tech/ngspice/corners/../../../libs.ref/sky130_fd_pr/spice/sky130_fd_pr__nfet_03v3_nvt.pm3.spice
 at or near line 1952
 Device model XI1:XHEADER_3:X7:SKY130_FD_PR__NFET_03V3_NVT__MODEL.7: Given
 pbswgd is less than 0.1. Pbswgd is set to 0.1
Netlist warning in file
 /home/alex/miniconda3/share/pdk/sky130A/libs.tech/ngspice/corners/../../../libs.ref/sky130_fd_pr/spice/sky130_fd_pr__nfet_01v8__tt.pm3.spice
 at or near line 23884
 Device model
 XI1:XSKY130_FD_SC_HD__INV_1_6:X0:SKY130_FD_PR__NFET_01V8__MODEL.89: Model
 card specifies BSIM4 version 4.5 which is older than the oldest version
 supported in Xyce (4.6.1).  Using oldest version available.
 
Netlist warning in file
 /home/alex/miniconda3/share/pdk/sky130A/libs.tech/ngspice/corners/../../../libs.ref/sky130_fd_pr/spice/sky130_fd_pr__nfet_01v8__tt.pm3.spice
 at or near line 23884
 Device model
 XI1:XSKY130_FD_SC_HD__INV_1_6:X0:SKY130_FD_PR__NFET_01V8__MODEL.89: Given
 pbswgd is less than 0.1. Pbswgd is set to 0.1
Netlist warning in file
 /home/alex/miniconda3/share/pdk/sky130A/libs.tech/ngspice/corners/../../../libs.ref/sky130_fd_pr/spice/sky130_fd_pr__pfet_01v8_hvt__tt.pm3.spice
 at or near line 21474
 Device model
 XI1:XSKY130_FD_SC_HD__INV_1_6:X1:SKY130_FD_PR__PFET_01V8_HVT__MODEL.80: Model
 card specifies BSIM4 version 4.5 which is older than the oldest version
 supported in Xyce (4.6.1).  Using oldest version available.
 
Netlist warning in file
 /home/alex/miniconda3/share/pdk/sky130A/libs.tech/ngspice/corners/../../../libs.ref/sky130_fd_pr/spice/sky130_fd_pr__pfet_01v8_hvt__tt.pm3.spice
 at or near line 21474
 Device model
 XI1:XSKY130_FD_SC_HD__INV_1_6:X1:SKY130_FD_PR__PFET_01V8_HVT__MODEL.80: Given
 pbswgd is less than 0.1. Pbswgd is set to 0.1
Netlist warning in file
 /home/alex/miniconda3/share/pdk/sky130A/libs.tech/ngspice/corners/../../../libs.ref/sky130_fd_pr/spice/sky130_fd_pr__nfet_01v8__tt.pm3.spice
 at or near line 23884
 Device model
 XI1:XSKY130_FD_SC_HD__INV_1_39:X0:SKY130_FD_PR__NFET_01V8__MODEL.89: Model
 card specifies BSIM4 version 4.5 which is older than the oldest version
 supported in Xyce (4.6.1).  Using oldest version available.
 
Netlist warning in file
 /home/alex/miniconda3/share/pdk/sky130A/libs.tech/ngspice/corners/../../../libs.ref/sky130_fd_pr/spice/sky130_fd_pr__nfet_01v8__tt.pm3.spice
 at or near line 23884
 Device model
 XI1:XSKY130_FD_SC_HD__INV_1_39:X0:SKY130_FD_PR__NFET_01V8__MODEL.89: Given
 pbswgd is less than 0.1. Pbswgd is set to 0.1
Netlist warning in file
 /home/alex/miniconda3/share/pdk/sky130A/libs.tech/ngspice/corners/../../../libs.ref/sky130_fd_pr/spice/sky130_fd_pr__pfet_01v8_hvt__tt.pm3.spice
 at or near line 21474
 Device model
 XI1:XSKY130_FD_SC_HD__INV_1_39:X1:SKY130_FD_PR__PFET_01V8_HVT__MODEL.80:
 Model card specifies BSIM4 version 4.5 which is older than the oldest version
 supported in Xyce (4.6.1).  Using oldest version available.
 
Netlist warning in file
 /home/alex/miniconda3/share/pdk/sky130A/libs.tech/ngspice/corners/../../../libs.ref/sky130_fd_pr/spice/sky130_fd_pr__pfet_01v8_hvt__tt.pm3.spice
 at or near line 21474
 Device model
 XI1:XSKY130_FD_SC_HD__INV_1_39:X1:SKY130_FD_PR__PFET_01V8_HVT__MODEL.80:
 Given pbswgd is less than 0.1. Pbswgd is set to 0.1
Netlist warning in file
 /home/alex/miniconda3/share/pdk/sky130A/libs.tech/ngspice/corners/../../../libs.ref/sky130_fd_pr/spice/sky130_fd_pr__nfet_01v8__tt.pm3.spice
 at or near line 23884
 Device model
 XI1:XSKY130_FD_SC_HD__INV_1_17:X0:SKY130_FD_PR__NFET_01V8__MODEL.89: Model
 card specifies BSIM4 version 4.5 which is older than the oldest version
 supported in Xyce (4.6.1).  Using oldest version available.
 
Netlist warning in file
 /home/alex/miniconda3/share/pdk/sky130A/libs.tech/ngspice/corners/../../../libs.ref/sky130_fd_pr/spice/sky130_fd_pr__nfet_01v8__tt.pm3.spice
 at or near line 23884
 Device model
 XI1:XSKY130_FD_SC_HD__INV_1_17:X0:SKY130_FD_PR__NFET_01V8__MODEL.89: Given
 pbswgd is less than 0.1. Pbswgd is set to 0.1
Netlist warning in file
 /home/alex/miniconda3/share/pdk/sky130A/libs.tech/ngspice/corners/../../../libs.ref/sky130_fd_pr/spice/sky130_fd_pr__pfet_01v8_hvt__tt.pm3.spice
 at or near line 21474
 Device model
 XI1:XSKY130_FD_SC_HD__INV_1_17:X1:SKY130_FD_PR__PFET_01V8_HVT__MODEL.80:
 Model card specifies BSIM4 version 4.5 which is older than the oldest version
 supported in Xyce (4.6.1).  Using oldest version available.
 
Netlist warning in file
 /home/alex/miniconda3/share/pdk/sky130A/libs.tech/ngspice/corners/../../../libs.ref/sky130_fd_pr/spice/sky130_fd_pr__pfet_01v8_hvt__tt.pm3.spice
 at or near line 21474
 Device model
 XI1:XSKY130_FD_SC_HD__INV_1_17:X1:SKY130_FD_PR__PFET_01V8_HVT__MODEL.80:
 Given pbswgd is less than 0.1. Pbswgd is set to 0.1
Netlist warning in file
 /home/alex/miniconda3/share/pdk/sky130A/libs.tech/ngspice/corners/../../../libs.ref/sky130_fd_pr/spice/sky130_fd_pr__nfet_01v8__tt.pm3.spice
 at or near line 23884
 Device model
 XI1:XSKY130_FD_SC_HD__INV_1_28:X0:SKY130_FD_PR__NFET_01V8__MODEL.89: Model
 card specifies BSIM4 version 4.5 which is older than the oldest version
 supported in Xyce (4.6.1).  Using oldest version available.
 
Netlist warning in file
 /home/alex/miniconda3/share/pdk/sky130A/libs.tech/ngspice/corners/../../../libs.ref/sky130_fd_pr/spice/sky130_fd_pr__nfet_01v8__tt.pm3.spice
 at or near line 23884
 Device model
 XI1:XSKY130_FD_SC_HD__INV_1_28:X0:SKY130_FD_PR__NFET_01V8__MODEL.89: Given
 pbswgd is less than 0.1. Pbswgd is set to 0.1
Maximum warning count has been exceeded and will no longer be displayed
***** Setting up topology...

***** Device Count Summary ...
       C level 1 (Capacitor)                  2190
       M level 14 (BSIM4)                      167
       V level 1 (Independent Voltage Source)    9
       -------------------------------------------
       Total Devices                          2366
***** Setting up matrix structure...
***** Number of Unknowns = 655
***** Initializing...

***** Beginning DC Operating Point Calculation...

DC Operating Point Failed.  Exiting transient loop

***** Solution Summary *****
	Number Successful Steps Taken:		0
	Number Failed Steps Attempted:		1
	Number Jacobians Evaluated:		51
	Number Linear Solves:			51
	Number Failed Linear Solves:		25
	Number Residual Evaluations:		155
	Number Nonlinear Convergence Failures:	1
	Total Residual Load Time:		0.0937686 seconds
	Total Jacobian Load Time:		0.00963855 seconds
	Total Linear Solution Time:		0.0113404 seconds


 ***** Measure Functions ***** 

PERIOD = FAILED with targ = not found and trig = not found

POWER = FAILED
Measure Start Time= 1.000000e-05	Measure End Time= 3.260000e-02


***** Total Simulation Solvers Run Time: 0.145644 seconds
***** Total Elapsed Run Time:            2.94772 seconds
*****
***** End of Xyce(TM) Simulation
*****

Timing summary of 1 processor
                 Stats                   Count       CPU Time              Wall Time
---------------------------------------- ----- --------------------- ---------------------
Xyce                                         1        1.780 (100.0%)        2.948 (100.0%)
  Analysis                                   1        0.133 ( 7.46%)        0.145 ( 4.93%)
    Transient                                1        0.133 ( 7.45%)        0.145 ( 4.93%)
      Nonlinear Solve                        1        0.129 ( 7.26%)        0.142 ( 4.81%)
        Residual                           155        0.082 ( 4.60%)        0.094 ( 3.19%)
        Jacobian                            51        0.010 ( 0.55%)        0.010 ( 0.33%)
        Linear Solve                        51        0.011 ( 0.64%)        0.011 ( 0.39%)
      Failed DCOP Steps                      1        0.000 (<0.01%)        0.000 (<0.01%)
  Netlist Import                             1        1.600 (89.89%)        2.696 (91.44%)
    Parse Context                            1        0.891 (50.04%)        1.560 (52.91%)
    Distribute Devices                       1        0.673 (37.81%)        1.084 (36.75%)
    Verify Devices                           1        0.000 (<0.01%)        0.000 (<0.01%)
    Instantiate                              1        0.026 ( 1.47%)        0.042 ( 1.43%)
  Late Initialization                        1        0.028 ( 1.55%)        0.059 ( 2.01%)
    Global Indices                           1        0.013 ( 0.72%)        0.025 ( 0.84%)
  Setup Matrix Structure                     1        0.008 ( 0.44%)        0.016 ( 0.54%)

